/*--------------------------------*- C++ -*----------------------------------*\
  =========                 |
  \\      /  F ield         | OpenFOAM: The Open Source CFD Toolbox
   \\    /   O peration     | Website:  https://openfoam.org
    \\  /    A nd           | Version:  10
     \\/     M anipulation  |
\*---------------------------------------------------------------------------*/
FoamFile
{
    format      ascii;
    class       dictionary;
    object      controlDict;
}
// * * * * * * * * * * * * * * * * * * * * * * * * * * * * * * * * * * * * * //

application     pimpleFoam;

startFrom       startTime; // changed from latestTime

startTime       10.51;

stopAt          endTime;

endTime         20;

deltaT          0.0005;

timeStep 	10;

writeControl    runTime;

writeInterval	0.01;

//writeFrequency	5;

purgeWrite      0;

writeFormat     ascii;

writePrecision  6;

writeCompression off;

timeFormat      general;

timePrecision   6;

runTimeModifiable true;

functions
{
//    #include "streamlines"
    #include "forceCoeffs"
    #include "forces"
//	#include "yPlus"

yPlus
{
    // Mandatory entries (unmodifiable)
    type            yPlus;
    libs            ("libfieldFunctionObjects.so");

    // Optional (inherited) entries
    writePrecision  8;
    writeToFile     true;
    useUserTime     true;
    region          region0;
    enabled         true;
    log             true;
    timeStart       0;
    timeEnd         1000;
    executeControl  timeStep;
    writeControl    timeStep;
    writeFrequency	10;
}
}


// ************************************************************************* //
