/*--------------------------------*- C++ -*----------------------------------*\
  =========                 |
  \\      /  F ield         | OpenFOAM: The Open Source CFD Toolbox
   \\    /   O peration     | Website:  https://openfoam.org
    \\  /    A nd           | Version:  10
     \\/     M anipulation  |
\*---------------------------------------------------------------------------*/
FoamFile
{
    format      ascii;
    class       dictionary;
    object      decomposeParDict;
}

// * * * * * * * * * * * * * * * * * * * * * * * * * * * * * * * * * * * * * //

numberOfSubdomains  40;

decomposer      simple;
distributor     ptscotch;
// distributor     zoltan;
// libs            ("libzoltanDecomp.so");

simpleCoeffs
{
    n               (5 4 2);
//   order           xyz;
}

zoltanCoeffs
{
    lb_method       hypergraph;
    lb_approach     partition;
}


// ************************************************************************* //
